<?xml version="1.0" encoding="UTF-8"?>

<!-- generated on 2025-07-26 19:06:43 by Eclipse SUMO duarouter Version 1.24.0
<duarouterConfiguration xmlns:xsi="http://www.w3.org/2001/XMLSchema-instance" xsi:noNamespaceSchemaLocation="http://sumo.dlr.de/xsd/duarouterConfiguration.xsd">

    <input>
        <net-file value="network.net.xml"/>
        <route-files value="agent.trips.xml"/>
    </input>

    <output>
        <output-file value="agent_routes.rou.xml"/>
    </output>

    <report>
        <verbose value="true"/>
        <ignore-errors value="true"/>
    </report>

</duarouterConfiguration>
-->

<routes xmlns:xsi="http://www.w3.org/2001/XMLSchema-instance" xsi:noNamespaceSchemaLocation="http://sumo.dlr.de/xsd/routes_file.xsd">
    <vType id="mobil_pribadi" length="5.00" maxSpeed="70.00" color="red" accel="2.6" decel="4.5"/>
    <vehicle id="agent_6_10" type="mobil_pribadi" depart="24180.00">
        <route edges="28680290"/>
    </vehicle>
    <vehicle id="agent_7_12" type="mobil_pribadi" depart="26580.00">
        <route edges="862374226"/>
    </vehicle>
    <vehicle id="agent_8_14" type="mobil_pribadi" depart="31740.00">
        <route edges="435993160"/>
    </vehicle>
    <vehicle id="agent_6_11" type="mobil_pribadi" depart="59584.00">
        <route edges="28680290"/>
    </vehicle>
    <vehicle id="agent_7_13" type="mobil_pribadi" depart="61638.00">
        <route edges="862374226"/>
    </vehicle>
    <vehicle id="agent_13_24" type="mobil_pribadi" depart="25320.00">
        <route edges="435993160"/>
    </vehicle>
    <vehicle id="agent_13_25" type="mobil_pribadi" depart="59001.00">
        <route edges="435993160"/>
    </vehicle>
    <vehicle id="agent_8_15" type="mobil_pribadi" depart="64486.00">
        <route edges="435993160"/>
    </vehicle>
    <vehicle id="agent_18_34" type="mobil_pribadi" depart="23160.00">
        <route edges="28680290"/>
    </vehicle>
    <vehicle id="agent_21_40" type="mobil_pribadi" depart="29700.00">
        <route edges="28680290 28680102#4 28680102#5 404674686 1038201809 28192331#2 28192331#3 400649930 1290115154 492250602 1192910608 1188772112#0 1188772112#1 28192372 594434105 594434104 549451285 1107002992 758034437 340557506 696111994 696111993#0 696111993#1 1371169725 1371169722 28193102#0 28193102#1 1371169728 762115004 1371169733 1378151563 531422604#0 531422604#1 531422604#2 1075646689#0 1075646689#1 1105764510 1075646691#0 1075646691#1 1075646691#2 453439709 453439715#0 453439715#1 453439715#2 453439715#3 453439715#4 453439715#5 453439708 453439712 453439707 453439711#0 453439711#1 453439713#0 453439713#1 453439710#0 453439710#1 453439710#2 453439714#0 453439714#1 453439714#2 453439714#3 630498224 481717407#0 481717407#1 481717407#2 556966711#0 556966711#1 556966711#2 556966711#3 556966711#4 556966711#5 483591533#0 483591533#1 483591533#2 483591533#3 483591533#4 435993160"/>
    </vehicle>
    <vehicle id="agent_24_46" type="mobil_pribadi" depart="30420.00">
        <route edges="28680290"/>
    </vehicle>
    <vehicle id="agent_20_38" type="mobil_pribadi" depart="31440.00">
        <route edges="28696685"/>
    </vehicle>
    <vehicle id="agent_29_56" type="mobil_pribadi" depart="31560.00">
        <route edges="761541587"/>
    </vehicle>
    <vehicle id="agent_26_50" type="mobil_pribadi" depart="31680.00">
        <route edges="28780920"/>
    </vehicle>
    <vehicle id="agent_18_35" type="mobil_pribadi" depart="59742.00">
        <route edges="28680290"/>
    </vehicle>
    <vehicle id="agent_24_47" type="mobil_pribadi" depart="62341.00">
        <route edges="28680290"/>
    </vehicle>
    <vehicle id="agent_20_39" type="mobil_pribadi" depart="63053.00">
        <route edges="28696685"/>
    </vehicle>
    <vehicle id="agent_26_51" type="mobil_pribadi" depart="66872.00">
        <route edges="28780920"/>
    </vehicle>
    <vehicle id="agent_67_132" type="mobil_pribadi" depart="21780.00">
        <route edges="487370239 -487370239 31593623#8 877869223 937031729 28697246#16 701753255#0 701753255#1 701753255#2 1374429423#0 1374429423#1 758260766#0 758260766#1 758260766#2 758260766#3 758260766#4 758260766#5 758260766#6 758260766#7 758260766#8 758260766#9 758260766#10 778739792#0 778739792#1 778739792#2 778739792#3 778739792#4 28697231#0 28697231#1 28697231#2 28697231#3 28697231#4 28697231#5 28697231#6 28697231#7 28697231#8 28697231#9 28697231#10 28697231#11 28697231#12 28697231#13 691945112#0 691945112#1 28715949#0 28715949#1 28715949#2 28715949#3 28715949#4 28715949#5 761950385"/>
    </vehicle>
    <vehicle id="agent_68_134" type="mobil_pribadi" depart="22080.00">
        <route edges="28680290"/>
    </vehicle>
    <vehicle id="agent_60_118" type="mobil_pribadi" depart="22560.00">
        <route edges="752884537"/>
    </vehicle>
    <vehicle id="agent_111_220" type="mobil_pribadi" depart="22620.00">
        <route edges="487370239"/>
    </vehicle>
    <vehicle id="agent_55_108" type="mobil_pribadi" depart="22680.00">
        <route edges="752901343 -752901343 28680102#4 28680102#5 404674686 1038201809 28192331#2 28192331#3 400649930 1290115154 492250602 1192910608 1188772112#0 1188772112#1 28192372 594434105 594434104 549451285 1107002992 758034437 340557506 696111994 696111993#0 696111993#1 1371169725 1371169722 28193102#0 28193102#1 1371169728 762115004 1371169733 1378151563 531422604#0 531422604#1 531422604#2 1075646689#0 1075646689#1 1105764510 1075646691#0 1075646691#1 1075646691#2 453439709 453439715#0 453439715#1 453439715#2 453439715#3 453439715#4 453439715#5 453439708 453439712 453439707 453439711#0 453439711#1 453439713#0 453439713#1 453439710#0 453439710#1 453439710#2 453439714#0 453439714#1 453439714#2 453439714#3 630498224 481717407#0 481717407#1 481717407#2 556966711#0 556966711#1 556966711#2 556966711#3 556966711#4 556966711#5 483591533#0 483591533#1 483591533#2 483591533#3 483591533#4 435993160"/>
    </vehicle>
    <vehicle id="agent_131_260" type="mobil_pribadi" depart="22680.00">
        <route edges="752884537"/>
    </vehicle>
    <vehicle id="agent_105_208" type="mobil_pribadi" depart="22740.00">
        <route edges="1219443366"/>
    </vehicle>
    <vehicle id="agent_79_156" type="mobil_pribadi" depart="23160.00">
        <route edges="28680290 28680102#4 28680102#5 404674686 1038201809 28192331#2 28192331#3 1100713149 1288780001#0 1288780001#1 1288780001#2 18057042#0 18057042#1 18057042#2 760562721 694263264#0 694263264#1 1096836728 28193047 1219442889 1108641195 759697244 1219442890 701220982#0 701220982#1 767782899#0 767782899#1 696130290#0 696130290#1 744809187 761313802 1299095344#0 1299095344#1 1299095344#2 482346487#0 482346487#1 684082104 684082103 485997874 737179489#0 737179489#1 737179489#2 737179489#3 737179489#4 28697037 1161222131 736703063 758159461 28780917#0 28780920"/>
    </vehicle>
    <vehicle id="agent_120_238" type="mobil_pribadi" depart="24000.00">
        <route edges="28680290"/>
    </vehicle>
    <vehicle id="agent_116_230" type="mobil_pribadi" depart="24060.00">
        <route edges="28696685 1106661486 1106674711 18070850 -760239273 -774691305 28696919#3 28696919#4 28696919#5 28696919#6 28696919#7 484871115#1 484871115#2 1252834553#0 1252834553#1 1252834553#2 18058268#0 18071437#0 18071437#1 18071437#2 18071437#3 737179489#6 737179489#7 18613712#0 18613712#1 18613712#2 18613712#3 18613712#4 18613712#5 18613712#6 18613712#7 18613712#8 18613712#9 18613712#10 18613712#11 18613712#12 18613712#13 18613712#14 18613712#15 495452796 758260766#2 758260766#3 758260766#4 758260766#5 758260766#6 28766851#0 28766851#1 28766851#2 28766851#3 28766851#4 28766851#5 1073938359"/>
    </vehicle>
    <vehicle id="agent_115_228" type="mobil_pribadi" depart="24360.00">
        <route edges="950280861 1008400870 -737754887 -488404206 28780860#4 28780860#5 732752799 957424185 31571806#1 -28780858#1 -28780858#0 -31571811#1 28780857 1109088803 1299095343#7 1299095343#8 1299095343#9 1299095343#10 1299095343#11 28697138#0 761950386"/>
    </vehicle>
    <vehicle id="agent_84_166" type="mobil_pribadi" depart="24420.00">
        <route edges="487370239"/>
    </vehicle>
    <vehicle id="agent_155_308" type="mobil_pribadi" depart="24720.00">
        <route edges="18070961"/>
    </vehicle>
    <vehicle id="agent_126_250" type="mobil_pribadi" depart="24840.00">
        <route edges="28680290 28680102#4 28680102#5 404674686 1038201809 28192331#2 28192331#3 1100713149 1288780001#0 1288780001#1 1288780001#2 18057042#0 18057042#1 18057042#2 760562721 694263264#0 694263264#1 1096836728 28193047 1219442889 1108641195 759697244 1219442890 701220982#0 701220982#1 767782899#0 767782899#1 696130290#0 696130290#1 744809187 761313802 1299095344#0 1299095344#1 1299095344#2 482346487#0 482346487#1 684082104 684082103 485997874 737179489#0 737179489#1 737179489#2 737179489#3 737179489#4 737179489#5 737179489#6 737179489#7 18613712#0 18613712#1 18613712#2 18613712#3 18613712#4 18613712#5 18613712#6 31598550 778739792#0 778739792#1 778739792#2 778739792#3 778739792#4 862374226"/>
    </vehicle>
    <vehicle id="agent_56_110" type="mobil_pribadi" depart="24960.00">
        <route edges="752902154"/>
    </vehicle>
    <vehicle id="agent_125_248" type="mobil_pribadi" depart="25200.00">
        <route edges="752884721"/>
    </vehicle>
    <vehicle id="agent_140_278" type="mobil_pribadi" depart="25260.00">
        <route edges="752884721 28680102#3 28680102#4 28680102#5 404674686 1038201809 28192331#2 28192331#3 400649930 1290115154 492250602 1192910608 1188772112#0 1188772112#1 28192372 594434105 594434104 549451285 1107002992 758034437 340557506 696111994 696111993#0 696111993#1 1371169725 1371169722 28193102#0 28193102#1 1371169728 762115004 762115003 1371169731 738111506 -28245898#2 -28245898#1 -28245898#0 676150371 676150373 676150374 676150375 974882095 18070525#0 18070525#1 18070525#2 18070525#3 18070525#4 18070049#0 18070049#1 18070225#0 18070225#1 18070225#2 31602554#0 31602554#1 453224369 755081772"/>
    </vehicle>
    <vehicle id="agent_148_294" type="mobil_pribadi" depart="25320.00">
        <route edges="28680290"/>
    </vehicle>
    <vehicle id="agent_59_116" type="mobil_pribadi" depart="25800.00">
        <route edges="752884721"/>
    </vehicle>
    <vehicle id="agent_37_72" type="mobil_pribadi" depart="25920.00">
        <route edges="752901342"/>
    </vehicle>
    <vehicle id="agent_108_214" type="mobil_pribadi" depart="26040.00">
        <route edges="28680290"/>
    </vehicle>
    <vehicle id="agent_112_222" type="mobil_pribadi" depart="26520.00">
        <route edges="737754887"/>
    </vehicle>
    <vehicle id="agent_54_106" type="mobil_pribadi" depart="26580.00">
        <route edges="28780920"/>
    </vehicle>
    <vehicle id="agent_48_94" type="mobil_pribadi" depart="26700.00">
        <route edges="28696685"/>
    </vehicle>
    <vehicle id="agent_138_274" type="mobil_pribadi" depart="27180.00">
        <route edges="18070961 1106674709 -1106674709 -18070961 28696919#4 28696919#5 28696919#6 28696919#7 484871115#1 484871115#2 1252834553#0 1252834553#1 1252834553#2 18058268#0 18071437#0 18071437#1 18071437#2 18071437#3 737179489#6 737179489#7 18613712#0 18613712#1 18613712#2 18613712#3 18613712#4 18613712#5 18613712#6 31598550 778739792#0 778739792#1 778739792#2 778739792#3 778739792#4 862374226"/>
    </vehicle>
    <vehicle id="agent_123_244" type="mobil_pribadi" depart="27900.00">
        <route edges="487370239"/>
    </vehicle>
    <vehicle id="agent_62_122" type="mobil_pribadi" depart="28560.00">
        <route edges="28680290 28680102#4 28680102#5 404674686 1038201809 28192331#2 28192331#3 400649930 1290115154 492250602 1192910608 1188772112#0 1188772112#1 28192372 594434105 594434104 549451285 1107002992 758034437 340557506 696111994 696111993#0 696111993#1 1371169725 1371169722 28193102#0 28193102#1 1371169728 762115004 1371169733 1378151563 531422604#0 531422604#1 531422604#2 1075646689#0 1075646689#1 1105764510 1075646691#0 1075646691#1 1075646691#2 453439709 453439715#0 453439715#1 453439715#2 453439715#3 453439715#4 453439715#5 453439708 453439712 453439707 453439711#0 453439711#1 453439713#0 453439713#1 453439710#0 453439710#1 453439710#2 453439714#0 453439714#1 453439714#2 453439714#3 630498224 481717407#0 481717407#1 481717407#2 556966711#0 556966711#1 556966711#2 556966711#3 556966711#4 556966711#5 483591533#0 483591533#1 483591533#2 483591533#3 483591533#4 435993160"/>
    </vehicle>
    <vehicle id="agent_109_216" type="mobil_pribadi" depart="28620.00">
        <route edges="28696755"/>
    </vehicle>
    <vehicle id="agent_106_210" type="mobil_pribadi" depart="28980.00">
        <route edges="752902154"/>
    </vehicle>
    <vehicle id="agent_64_126" type="mobil_pribadi" depart="29160.00">
        <route edges="28680290"/>
    </vehicle>
    <vehicle id="agent_57_112" type="mobil_pribadi" depart="29700.00">
        <route edges="752884537"/>
    </vehicle>
    <vehicle id="agent_81_160" type="mobil_pribadi" depart="29820.00">
        <route edges="752884721"/>
    </vehicle>
    <vehicle id="agent_97_192" type="mobil_pribadi" depart="30000.00">
        <route edges="557589420"/>
    </vehicle>
    <vehicle id="agent_119_236" type="mobil_pribadi" depart="30120.00">
        <route edges="28680290"/>
    </vehicle>
    <vehicle id="agent_58_114" type="mobil_pribadi" depart="30240.00">
        <route edges="28680290"/>
    </vehicle>
    <vehicle id="agent_66_130" type="mobil_pribadi" depart="30480.00">
        <route edges="654671456"/>
    </vehicle>
    <vehicle id="agent_137_272" type="mobil_pribadi" depart="31020.00">
        <route edges="737754887"/>
    </vehicle>
    <vehicle id="agent_110_218" type="mobil_pribadi" depart="31320.00">
        <route edges="749324782"/>
    </vehicle>
    <vehicle id="agent_156_310" type="mobil_pribadi" depart="31500.00">
        <route edges="28680290"/>
    </vehicle>
    <vehicle id="agent_88_174" type="mobil_pribadi" depart="31560.00">
        <route edges="28680290"/>
    </vehicle>
    <vehicle id="agent_124_246" type="mobil_pribadi" depart="31560.00">
        <route edges="737754887"/>
    </vehicle>
    <vehicle id="agent_38_74" type="mobil_pribadi" depart="31740.00">
        <route edges="28680290"/>
    </vehicle>
    <vehicle id="agent_53_104" type="mobil_pribadi" depart="31800.00">
        <route edges="435993160"/>
    </vehicle>
    <vehicle id="agent_87_172" type="mobil_pribadi" depart="32160.00">
        <route edges="752901342"/>
    </vehicle>
    <vehicle id="agent_67_133" type="mobil_pribadi" depart="54597.00">
        <route edges="761950385 740635947#0 740635947#1 28780855#0 28780855#1 28780853#0 28780853#1 28780853#2 1109088804 28715949#3 28715949#4 28715949#5 1042517220 1042517218 1042517219#0 467748853 467747929#1 28766823#0 28766823#1 28766823#2 28766823#3 28766823#4 28766823#5 28766823#6 28766823#7 28766823#8 28766823#9 -485992315 31593623#5 31593623#6 31593623#7 487370239"/>
    </vehicle>
    <vehicle id="agent_105_209" type="mobil_pribadi" depart="55194.00">
        <route edges="1219443366"/>
    </vehicle>
    <vehicle id="agent_111_221" type="mobil_pribadi" depart="55204.00">
        <route edges="487370239"/>
    </vehicle>
    <vehicle id="agent_68_135" type="mobil_pribadi" depart="56814.00">
        <route edges="28680290"/>
    </vehicle>
    <vehicle id="agent_126_251" type="mobil_pribadi" depart="57103.00">
        <route edges="862374226 674366039 18613712#1 18613712#2 18613712#3 18613712#4 18613712#5 18613712#6 18613712#7 18613712#8 18613712#9 18613712#10 18613712#11 18613712#12 18613712#13 18613712#14 18613712#15 1098855978 674372484 1299095345 754818520#0 754818520#1 755768811 779819930#0 779819930#1 779819930#2 779819930#3 18051997#0 18051997#1 1252834552#0 1252834552#1 492263524 688073443#0 688073443#1 756475999#0 756475999#1 756475999#2 761558443 756475998#0 756475998#1 768027248#0 768027248#1 768027248#2 768027248#3 768027248#4 556966715 760232628 737187916#0 737187916#1 737187916#2 28192810#0 28192810#1 28192810#2 28192810#3 28192810#4 28192810#5 737187915 737591319#0 737591319#1 974882094 -676150375 -676150374 -676150373 -676150371 28245898#0 28245898#1 28245898#2 735444562#0 735444562#1 1371169730 631734959 28799961 1371169727 761559698#0 761559698#1 654447206#0 654447206#1 549451286 -718351826#1 -718351826#0 -718352194 -549451284 -557589417 1038201808 28680102#0 -28680101#4 -28680101#3 28680290"/>
    </vehicle>
    <vehicle id="agent_140_279" type="mobil_pribadi" depart="57254.00">
        <route edges="755081772 -28696760#0 31602554#1 -28696739#1 -28696739#0 -31602564#2 -31602564#1 -31602564#0 450695539#1 450695541 450695537 450695540 450695542 1107211035 450711235#0 450711235#1 1107211034#0 1107211034#1 449551309#0 449551309#1 449551309#2 449551309#3 449551309#4 449551309#5 449551309#6 449551309#7 759477372 449551312 449551330#0 449551330#1 1135359162 449551298 1263586497#0 1263586497#1 449551306#0 449551306#1 449551306#2 1288769140 28192354#0 28192354#1 28192354#2 28192354#3 228957024#0 228957024#1 228957024#2 228957024#3 735427185#0 735427185#1 735427185#2 -752901342 -594434106#1 752884721"/>
    </vehicle>
    <vehicle id="agent_56_111" type="mobil_pribadi" depart="57305.00">
        <route edges="752902154"/>
    </vehicle>
    <vehicle id="agent_60_119" type="mobil_pribadi" depart="57366.00">
        <route edges="752884537"/>
    </vehicle>
    <vehicle id="agent_131_261" type="mobil_pribadi" depart="57676.00">
        <route edges="752884537"/>
    </vehicle>
    <vehicle id="agent_84_167" type="mobil_pribadi" depart="57679.00">
        <route edges="487370239"/>
    </vehicle>
    <vehicle id="agent_120_239" type="mobil_pribadi" depart="57733.00">
        <route edges="28680290"/>
    </vehicle>
    <vehicle id="agent_115_229" type="mobil_pribadi" depart="58502.00">
        <route edges="761950386 1036703935#0 1036703935#1 -1036703936 -31571811#1 -31571811#0 28780853#0 28780853#1 28780853#2 1109088804 28715949#3 28715949#4 28715949#5 1042517220 1042517218 1042517219#0 957424186 28780860#0 28780860#1 155107723#0 155107723#1 155107723#2 950280861"/>
    </vehicle>
    <vehicle id="agent_109_217" type="mobil_pribadi" depart="59317.00">
        <route edges="28696755"/>
    </vehicle>
    <vehicle id="agent_59_117" type="mobil_pribadi" depart="59327.00">
        <route edges="752884721"/>
    </vehicle>
    <vehicle id="agent_112_223" type="mobil_pribadi" depart="59435.00">
        <route edges="737754887"/>
    </vehicle>
    <vehicle id="agent_116_231" type="mobil_pribadi" depart="59530.00">
        <route edges="1073938359 778739792#3 778739792#4 862374226 674366039 18613712#1 18613712#2 18613712#3 18613712#4 18613712#5 18613712#6 18613712#7 18613712#8 18613712#9 18613712#10 18613712#11 18613712#12 18613712#13 18613712#14 18613712#15 1098855978 674372484 1299095345 754818520#0 754818520#1 755768811 779819930#0 779819930#1 779819930#2 779819930#3 18051997#0 18051997#1 1252834552#0 1252834552#1 492263524 688073443#0 688073443#1 756475999#0 756475999#1 756475999#2 761558443 756475998#0 756475998#1 768027248#0 768027248#1 768027248#2 768027248#3 768027248#4 556966715 760232628 737187916#0 737187916#1 737187916#2 28192810#0 28192810#1 28192810#2 28192810#3 28192810#4 28192810#5 28683571 18070525#2 18070525#3 18070525#4 18070049#0 18070049#1 18070225#0 1106661485 28696685"/>
    </vehicle>
    <vehicle id="agent_148_295" type="mobil_pribadi" depart="59833.00">
        <route edges="28680290"/>
    </vehicle>
    <vehicle id="agent_108_215" type="mobil_pribadi" depart="59900.00">
        <route edges="28680290"/>
    </vehicle>
    <vehicle id="agent_79_157" type="mobil_pribadi" depart="59987.00">
        <route edges="28780920 28697231#4 28697231#5 28697231#6 28697231#7 28697231#8 28697231#9 28697231#10 28697231#11 28697231#12 28697231#13 28697231#14 28697231#15 1299095343#0 1299095343#1 1299095343#2 1299095343#3 1299095343#4 1299095343#5 1299095343#6 1299095343#7 1299095343#8 1299095343#9 1299095343#10 1299095343#11 28697188#0 28697188#1 737227626 745179578 28696924#0 28696924#1 28696924#2 28696924#3 28696924#4 761304615 761304616#0 761304616#1 761304616#2 761304616#3 1253346331 483611733#0 483611733#1 -676150371 28245898#0 28245898#1 28245898#2 735444562#0 735444562#1 1371169730 631734959 28799961 1371169727 761559698#0 761559698#1 654447206#0 654447206#1 549451286 -718351826#1 -718351826#0 -718352194 -549451284 -557589417 1038201808 28680102#0 -28680101#4 -28680101#3 28680290"/>
    </vehicle>
    <vehicle id="agent_138_275" type="mobil_pribadi" depart="60209.00">
        <route edges="862374226 674366039 18613712#1 18613712#2 18613712#3 18613712#4 18613712#5 18613712#6 18613712#7 18613712#8 18613712#9 18613712#10 18613712#11 18613712#12 18613712#13 18613712#14 18613712#15 1098855978 674372484 1299095345 754818520#0 754818520#1 755768811 779819930#0 779819930#1 779819930#2 779819930#3 18051997#0 18051997#1 1252834552#0 1252834552#1 492263524 688073443#0 688073443#1 756475999#0 756475999#1 756475999#2 761558443 756475998#0 756475998#1 768027248#0 768027248#1 768027248#2 768027248#3 768027248#4 556966715 760232628 737187916#0 737187916#1 737187916#2 28192810#0 674359476 1106674707 -1106674709 -18070961 18070961"/>
    </vehicle>
    <vehicle id="agent_155_309" type="mobil_pribadi" depart="60469.00">
        <route edges="18070961"/>
    </vehicle>
    <vehicle id="agent_37_73" type="mobil_pribadi" depart="60825.00">
        <route edges="752901342"/>
    </vehicle>
    <vehicle id="agent_64_127" type="mobil_pribadi" depart="61420.00">
        <route edges="28680290"/>
    </vehicle>
    <vehicle id="agent_125_249" type="mobil_pribadi" depart="61455.00">
        <route edges="752884721"/>
    </vehicle>
    <vehicle id="agent_54_107" type="mobil_pribadi" depart="61981.00">
        <route edges="28780920"/>
    </vehicle>
    <vehicle id="agent_58_115" type="mobil_pribadi" depart="62184.00">
        <route edges="28680290"/>
    </vehicle>
    <vehicle id="agent_106_211" type="mobil_pribadi" depart="62247.00">
        <route edges="752902154"/>
    </vehicle>
    <vehicle id="agent_48_95" type="mobil_pribadi" depart="62395.00">
        <route edges="28696685"/>
    </vehicle>
    <vehicle id="agent_38_75" type="mobil_pribadi" depart="62740.00">
        <route edges="28680290"/>
    </vehicle>
    <vehicle id="agent_123_245" type="mobil_pribadi" depart="62797.00">
        <route edges="487370239"/>
    </vehicle>
    <vehicle id="agent_97_193" type="mobil_pribadi" depart="62815.00">
        <route edges="557589420"/>
    </vehicle>
    <vehicle id="agent_137_273" type="mobil_pribadi" depart="63334.00">
        <route edges="737754887"/>
    </vehicle>
    <vehicle id="agent_156_311" type="mobil_pribadi" depart="64039.00">
        <route edges="28680290"/>
    </vehicle>
    <vehicle id="agent_57_113" type="mobil_pribadi" depart="64998.00">
        <route edges="752884537"/>
    </vehicle>
    <vehicle id="agent_81_161" type="mobil_pribadi" depart="65519.00">
        <route edges="752884721"/>
    </vehicle>
    <vehicle id="agent_119_237" type="mobil_pribadi" depart="65538.00">
        <route edges="28680290"/>
    </vehicle>
    <vehicle id="agent_88_175" type="mobil_pribadi" depart="65548.00">
        <route edges="28680290"/>
    </vehicle>
    <vehicle id="agent_87_173" type="mobil_pribadi" depart="66400.00">
        <route edges="752901342"/>
    </vehicle>
    <vehicle id="agent_66_131" type="mobil_pribadi" depart="66563.00">
        <route edges="654671456"/>
    </vehicle>
    <vehicle id="agent_53_105" type="mobil_pribadi" depart="66566.00">
        <route edges="435993160"/>
    </vehicle>
    <vehicle id="agent_110_219" type="mobil_pribadi" depart="66649.00">
        <route edges="749324782"/>
    </vehicle>
    <vehicle id="agent_124_247" type="mobil_pribadi" depart="67331.00">
        <route edges="737754887"/>
    </vehicle>
    <vehicle id="agent_29_57" type="mobil_pribadi" depart="67927.00">
        <route edges="761541587"/>
    </vehicle>
    <vehicle id="agent_161_320" type="mobil_pribadi" depart="22140.00">
        <route edges="737754887"/>
    </vehicle>
    <vehicle id="agent_182_362" type="mobil_pribadi" depart="22560.00">
        <route edges="28680290"/>
    </vehicle>
    <vehicle id="agent_177_352" type="mobil_pribadi" depart="23760.00">
        <route edges="28680290"/>
    </vehicle>
    <vehicle id="agent_179_356" type="mobil_pribadi" depart="24240.00">
        <route edges="28696685"/>
    </vehicle>
    <vehicle id="agent_191_380" type="mobil_pribadi" depart="24540.00">
        <route edges="1038201808"/>
    </vehicle>
    <vehicle id="agent_164_326" type="mobil_pribadi" depart="25140.00">
        <route edges="28680290"/>
    </vehicle>
    <vehicle id="agent_169_336" type="mobil_pribadi" depart="25740.00">
        <route edges="28680290 28680102#4 28680102#5 404674686 1038201809 28192331#2 28192331#3 400649930 1290115154 492250602 1192910608 1188772112#0 1188772112#1 28192372 594434105 594434104 549451285 1107002992 758034437 340557506 696111994 696111993#0 696111993#1 1371169725 1371169722 28193102#0 28193102#1 1371169728 762115004 1371169733 1378151563 531422604#0 531422604#1 531422604#2 1075646689#0 1075646689#1 1105764510 1075646691#0 1075646691#1 1075646691#2 453439709 453439715#0 453439715#1 453439715#2 453439715#3 453439715#4 453439715#5 453439708 453439712 453439707 453439711#0 453439711#1 453439713#0 453439713#1 453439710#0 453439710#1 453439710#2 453439714#0 453439714#1 453439714#2 453439714#3 630498224 481717407#0 481717407#1 481717407#2 556966711#0 556966711#1 556966711#2 556966711#3 556966711#4 556966711#5 483591533#0 483591533#1 483591533#2 483591533#3 483591533#4 435993160"/>
    </vehicle>
    <vehicle id="agent_184_366" type="mobil_pribadi" depart="25800.00">
        <route edges="654671456"/>
    </vehicle>
    <vehicle id="agent_172_342" type="mobil_pribadi" depart="26520.00">
        <route edges="752902154"/>
    </vehicle>
    <vehicle id="agent_167_332" type="mobil_pribadi" depart="26820.00">
        <route edges="28680290"/>
    </vehicle>
    <vehicle id="agent_173_344" type="mobil_pribadi" depart="27840.00">
        <route edges="28680290"/>
    </vehicle>
    <vehicle id="agent_199_396" type="mobil_pribadi" depart="28320.00">
        <route edges="1073938359"/>
    </vehicle>
    <vehicle id="agent_183_364" type="mobil_pribadi" depart="31860.00">
        <route edges="752884537 946195212 -946195212 -752884537 28680102#3 28680102#4 28680102#5 404674686 1038201809 28192331#2 28192331#3 400649930 1290115154 492250602 1192910608 1188772112#0 1188772112#1 28192372 594434105 594434104 549451285 1107002992 758034437 340557506 696111994 696111993#0 696111993#1 1371169725 1371169722 28193102#0 28193102#1 1371169728 762115004 1371169733 1378151563 531422604#0 531422604#1 531422604#2 1075646689#0 1075646689#1 1105764510 1075646691#0 1075646691#1 1075646691#2 453439709 453439715#0 453439715#1 453439715#2 453439715#3 453439715#4 453439715#5 453439708 453439712 453439707 453439711#0 453439711#1 453439713#0 453439713#1 453439710#0 453439710#1 453439710#2 453439714#0 453439714#1 453439714#2 453439714#3 630498224 481717407#0 481717407#1 481717407#2 556966711#0 556966711#1 556966711#2 556966711#3 556966711#4 556966711#5 483591533#0 483591533#1 483591533#2 483591533#3 483591533#4 435993160"/>
    </vehicle>
    <vehicle id="agent_182_363" type="mobil_pribadi" depart="55903.00">
        <route edges="28680290"/>
    </vehicle>
    <vehicle id="agent_191_381" type="mobil_pribadi" depart="56441.00">
        <route edges="1038201808"/>
    </vehicle>
    <vehicle id="agent_164_327" type="mobil_pribadi" depart="56691.00">
        <route edges="28680290"/>
    </vehicle>
    <vehicle id="agent_184_367" type="mobil_pribadi" depart="57562.00">
        <route edges="654671456"/>
    </vehicle>
    <vehicle id="agent_161_321" type="mobil_pribadi" depart="59180.00">
        <route edges="737754887"/>
    </vehicle>
    <vehicle id="agent_199_397" type="mobil_pribadi" depart="59473.00">
        <route edges="1073938359"/>
    </vehicle>
    <vehicle id="agent_177_353" type="mobil_pribadi" depart="59948.00">
        <route edges="28680290"/>
    </vehicle>
    <vehicle id="agent_179_357" type="mobil_pribadi" depart="60002.00">
        <route edges="28696685"/>
    </vehicle>
    <vehicle id="agent_167_333" type="mobil_pribadi" depart="61041.00">
        <route edges="28680290"/>
    </vehicle>
    <vehicle id="agent_172_343" type="mobil_pribadi" depart="62353.00">
        <route edges="752902154"/>
    </vehicle>
    <vehicle id="agent_173_345" type="mobil_pribadi" depart="63179.00">
        <route edges="28680290"/>
    </vehicle>
</routes>
