<?xml version="1.0" encoding="UTF-8"?>

<!-- generated on 2025-07-26 22:20:03.658453 by randomTrips.py v1_24_0+0000-b72eb3fabc8
<configuration>
    <net-file value="jakartapusat.net.xml"/>
    <output-trip-file value="random.trips.xml"/>
    <end value="5000.0"/>
</configuration>
-->

<routes xmlns:xsi="http://www.w3.org/2001/XMLSchema-instance" xsi:noNamespaceSchemaLocation="http://sumo.dlr.de/xsd/routes_file.xsd">
    <trip id="0" depart="0.00" from="452004215#2" to="-1053891025#1"/>
    <trip id="1" depart="1.00" from="-507502829#1" to="-496025746#1"/>
    <trip id="2" depart="2.00" from="496597262#0" to="490856352#0"/>
    <trip id="3" depart="3.00" from="736957432#4" to="-28932382#4"/>
    <trip id="4" depart="4.00" from="1037082806" to="-1099422316"/>
    <trip id="5" depart="5.00" from="-494646781" to="28219176#5"/>
    <trip id="6" depart="6.00" from="-1058437157" to="-492271094#2"/>
    <trip id="7" depart="7.00" from="4705045#3" to="28940747#2"/>
    <trip id="8" depart="8.00" from="-494970760#6" to="31295141#3"/>
    <trip id="9" depart="9.00" from="556928954#3" to="-100384315#2"/>
    <trip id="10" depart="10.00" from="537582652#0" to="492988997#0"/>
    <trip id="11" depart="11.00" from="-754201773" to="-45716773#2"/>
    <trip id="12" depart="12.00" from="815162267#3" to="-758719962#1"/>
    <trip id="13" depart="13.00" from="-28934643" to="-28948435#3"/>
    <trip id="14" depart="14.00" from="662611419#3" to="31574284#2"/>
    <trip id="15" depart="15.00" from="550355389#1" to="496601840#3"/>
    <trip id="16" depart="16.00" from="28773426#4" to="938326705"/>
    <trip id="17" depart="17.00" from="-950256936" to="29068599#0"/>
    <trip id="18" depart="18.00" from="594801536" to="38414438#6"/>
    <trip id="19" depart="19.00" from="689877065#2" to="29851035#1"/>
    <trip id="20" depart="20.00" from="492962079#1" to="-1349179459#4"/>
    <trip id="21" depart="21.00" from="-496041057" to="-557278283#0"/>
    <trip id="22" depart="22.00" from="-28773436#0" to="-496601759"/>
    <trip id="23" depart="23.00" from="-29783040#16" to="-508913831#1"/>
    <trip id="24" depart="24.00" from="428431673#0" to="-948034596"/>
    <trip id="25" depart="25.00" from="-915534937#0" to="-492989040"/>
    <trip id="26" depart="26.00" from="-501559906#1" to="762074074#1"/>
    <trip id="27" depart="27.00" from="461101932" to="343915038#0"/>
    <trip id="28" depart="28.00" from="-484854198#1" to="496601823#0"/>
    <trip id="29" depart="29.00" from="-482405611#0" to="-99824304#2"/>
    <trip id="30" depart="30.00" from="99499770#6" to="481977424"/>
    <trip id="31" depart="31.00" from="28940740" to="492248018"/>
    <trip id="32" depart="32.00" from="652569544" to="507502852"/>
    <trip id="33" depart="33.00" from="-496041117#1" to="-1109106083#2"/>
    <trip id="34" depart="34.00" from="-700316980" to="-506903880#2"/>
    <trip id="35" depart="35.00" from="-492988936#1" to="763447261#8"/>
    <trip id="36" depart="36.00" from="712277076#2" to="-732689246#0"/>
    <trip id="37" depart="37.00" from="482405633#1" to="100455924#0"/>
    <trip id="38" depart="38.00" from="754613343#1" to="1320488570#2"/>
    <trip id="39" depart="39.00" from="-500881011#9" to="-497093800#2"/>
    <trip id="40" depart="40.00" from="28948439#1" to="-501559921#3"/>
    <trip id="41" depart="41.00" from="29849233#3" to="749488387#1"/>
    <trip id="42" depart="42.00" from="1001371685#0" to="-494970828#1"/>
    <trip id="43" depart="43.00" from="99858088" to="28679893#2"/>
    <trip id="44" depart="44.00" from="-28934605#0" to="-1375636309"/>
    <trip id="45" depart="45.00" from="-29803529" to="452004217#1"/>
    <trip id="46" depart="46.00" from="508874654#0" to="109069460#9"/>
    <trip id="47" depart="47.00" from="-18577348#2" to="-99851783#4"/>
    <trip id="48" depart="48.00" from="99851783#3" to="28779894#2"/>
    <trip id="49" depart="49.00" from="916245861#4" to="694263266"/>
    <trip id="50" depart="50.00" from="-100572763" to="496566832"/>
    <trip id="51" depart="51.00" from="488357389" to="28932371#3"/>
    <trip id="52" depart="52.00" from="-501559905#0" to="482188696#0"/>
    <trip id="53" depart="53.00" from="-29814811#0" to="1177453060"/>
    <trip id="54" depart="54.00" from="1236754677" to="812717596"/>
    <trip id="55" depart="55.00" from="711243632#0" to="-506608865#1"/>
    <trip id="56" depart="56.00" from="18580996" to="-485868998#2"/>
    <trip id="57" depart="57.00" from="754288083#0" to="711241492#4"/>
    <trip id="58" depart="58.00" from="-557542313#1" to="481464412#1"/>
    <trip id="59" depart="59.00" from="31447084#9" to="-392059309#8"/>
    <trip id="60" depart="60.00" from="500825927#3" to="28934549#2"/>
    <trip id="61" depart="61.00" from="506608920#2" to="28780459#1"/>
    <trip id="62" depart="62.00" from="-1001361831#3" to="-746898217#1"/>
    <trip id="63" depart="63.00" from="-1032747075" to="761234122#1"/>
    <trip id="64" depart="64.00" from="723741396" to="632763158#1"/>
    <trip id="65" depart="65.00" from="-634050668" to="-155145171#3"/>
    <trip id="66" depart="66.00" from="720210197#2" to="766850322#7"/>
    <trip id="67" depart="67.00" from="-28875336#1" to="185290014#1"/>
    <trip id="68" depart="68.00" from="-28193852#0" to="500880956#3"/>
    <trip id="69" depart="69.00" from="500836753#0" to="-29858760#0"/>
    <trip id="70" depart="70.00" from="1370010724#1" to="28968829#2"/>
    <trip id="71" depart="71.00" from="-500881015" to="713577535#2"/>
    <trip id="72" depart="72.00" from="1044726879" to="-493594335"/>
    <trip id="73" depart="73.00" from="28779868#1" to="496601842#4"/>
    <trip id="74" depart="74.00" from="-492464893#0" to="-723888584#1"/>
    <trip id="75" depart="75.00" from="998324034" to="484689720"/>
    <trip id="76" depart="76.00" from="1107008877" to="28760108#9"/>
    <trip id="77" depart="77.00" from="-29849316#4" to="-496040985"/>
    <trip id="78" depart="78.00" from="-753339915" to="31295059#5"/>
    <trip id="79" depart="79.00" from="-496566836#0" to="-495401420"/>
    <trip id="80" depart="80.00" from="-28218863#3" to="45715982#2"/>
    <trip id="81" depart="81.00" from="-496041108#1" to="753370722#0"/>
    <trip id="82" depart="82.00" from="688708544#8" to="-28218965#1"/>
    <trip id="83" depart="83.00" from="-496601840#2" to="488357371#1"/>
    <trip id="84" depart="84.00" from="-493594336#2" to="-31294987#6"/>
    <trip id="85" depart="85.00" from="761558443" to="29845712#6"/>
    <trip id="86" depart="86.00" from="1331225009#0" to="508874617#2"/>
    <trip id="87" depart="87.00" from="554825367" to="-489779030#1"/>
    <trip id="88" depart="88.00" from="-28948366" to="1144579619#1"/>
    <trip id="89" depart="89.00" from="1046179730" to="1381206731"/>
    <trip id="90" depart="90.00" from="496041067" to="489538357"/>
    <trip id="91" depart="91.00" from="980415149" to="-29068592#6"/>
    <trip id="92" depart="92.00" from="100371482#10" to="-760161198"/>
    <trip id="93" depart="93.00" from="689877065#1" to="-498979317"/>
    <trip id="94" depart="94.00" from="-489753783#11" to="1281090046#1"/>
    <trip id="95" depart="95.00" from="1036703935#1" to="-508913846"/>
    <trip id="96" depart="96.00" from="-497093779" to="758763450"/>
    <trip id="97" depart="97.00" from="1122655303" to="695039174#4"/>
    <trip id="98" depart="98.00" from="28932800#1" to="-1381219095"/>
    <trip id="99" depart="99.00" from="99860500#0" to="651868666#1"/>
    <trip id="100" depart="100.00" from="915425122" to="760123040#6"/>
    <trip id="101" depart="101.00" from="674374038#2" to="-484557034#1"/>
    <trip id="102" depart="102.00" from="155111146#4" to="-494095904#0"/>
    <trip id="103" depart="103.00" from="100360848#2" to="-155174478#0"/>
    <trip id="104" depart="104.00" from="-950299464" to="983100882#1"/>
    <trip id="105" depart="105.00" from="-500881019" to="508874576#0"/>
    <trip id="106" depart="106.00" from="1245462308#2" to="1098599577"/>
    <trip id="107" depart="107.00" from="815231911#1" to="99851774#0"/>
    <trip id="108" depart="108.00" from="28940715#0" to="496041054"/>
    <trip id="109" depart="109.00" from="-411652016#0" to="-594801567#0"/>
    <trip id="110" depart="110.00" from="914683357#0" to="29853192#2"/>
    <trip id="111" depart="111.00" from="28779908#5" to="498593816#1"/>
    <trip id="112" depart="112.00" from="-155115843#1" to="29901624#7"/>
    <trip id="113" depart="113.00" from="192681211#1" to="688527412#0"/>
    <trip id="114" depart="114.00" from="-45717604#2" to="869987780"/>
    <trip id="115" depart="115.00" from="-28779851#0" to="-488357388#2"/>
    <trip id="116" depart="116.00" from="29857036#3" to="489753823"/>
    <trip id="117" depart="117.00" from="-496597262#1" to="-29849310#6"/>
    <trip id="118" depart="118.00" from="736720472#6" to="-497093784"/>
    <trip id="119" depart="119.00" from="29856973#1" to="38414442#8"/>
    <trip id="120" depart="120.00" from="101925423#1" to="29858774#0"/>
    <trip id="121" depart="121.00" from="28680428#1" to="761851530"/>
    <trip id="122" depart="122.00" from="-492915228#1" to="496025736#0"/>
    <trip id="123" depart="123.00" from="-496626535#1" to="100455928#0"/>
    <trip id="124" depart="124.00" from="485856252#0" to="-652189798#1"/>
    <trip id="125" depart="125.00" from="-700342171#1" to="499771961#2"/>
    <trip id="126" depart="126.00" from="-284762187" to="1312757407"/>
    <trip id="127" depart="127.00" from="99859135#0" to="99851783#1"/>
    <trip id="128" depart="128.00" from="-28678516#1" to="-494095830#1"/>
    <trip id="129" depart="129.00" from="-500881019" to="761689410"/>
    <trip id="130" depart="130.00" from="732435593#0" to="732726436"/>
    <trip id="131" depart="131.00" from="-915468036" to="-461071438#3"/>
    <trip id="132" depart="132.00" from="629731296" to="494095798"/>
    <trip id="133" depart="133.00" from="31450201#4" to="985426617#1"/>
    <trip id="134" depart="134.00" from="482214395#2" to="-100388264#0"/>
    <trip id="135" depart="135.00" from="557589417" to="-634578909#0"/>
    <trip id="136" depart="136.00" from="484854184" to="762256760"/>
    <trip id="137" depart="137.00" from="-31295063#1" to="-29845699#19"/>
    <trip id="138" depart="138.00" from="-29798226#0" to="292686197#0"/>
    <trip id="139" depart="139.00" from="-506627606" to="31600412"/>
    <trip id="140" depart="140.00" from="494646741" to="-492945076#1"/>
    <trip id="141" depart="141.00" from="411652013#0" to="-506608874#2"/>
    <trip id="142" depart="142.00" from="155145163#10" to="753335101"/>
    <trip id="143" depart="143.00" from="656632072#1" to="-28940713#2"/>
    <trip id="144" depart="144.00" from="1046179730" to="-508874644#4"/>
    <trip id="145" depart="145.00" from="-100381103#5" to="506608957#2"/>
    <trip id="146" depart="146.00" from="449551298" to="-501559903"/>
    <trip id="147" depart="147.00" from="496643312" to="29068594#2"/>
    <trip id="148" depart="148.00" from="1053891024" to="-100572739#1"/>
    <trip id="149" depart="149.00" from="-28696739#1" to="732787100"/>
    <trip id="150" depart="150.00" from="750342545#0" to="28940759#2"/>
    <trip id="151" depart="151.00" from="630154039#2" to="29857000#7"/>
    <trip id="152" depart="152.00" from="-35319555" to="-29855386#3"/>
    <trip id="153" depart="153.00" from="-654851267#1" to="749995400"/>
    <trip id="154" depart="154.00" from="509965208#1" to="694263265#1"/>
    <trip id="155" depart="155.00" from="747967064" to="-493563825#6"/>
    <trip id="156" depart="156.00" from="-497061655" to="-29788061#4"/>
    <trip id="157" depart="157.00" from="506903869" to="733240522#0"/>
    <trip id="158" depart="158.00" from="100384912#1" to="392059309#2"/>
    <trip id="159" depart="159.00" from="-400097252#4" to="761422814"/>
    <trip id="160" depart="160.00" from="693134389#2" to="949920820"/>
    <trip id="161" depart="161.00" from="556966700#3" to="732777715#0"/>
    <trip id="162" depart="162.00" from="-1053568990#0" to="496829977"/>
    <trip id="163" depart="163.00" from="-745621460" to="761522995#7"/>
    <trip id="164" depart="164.00" from="529651321#0" to="699354247#2"/>
    <trip id="165" depart="165.00" from="556966700#2" to="-506609042"/>
    <trip id="166" depart="166.00" from="508327232" to="-29799410"/>
    <trip id="167" depart="167.00" from="700761881#0" to="691960990"/>
    <trip id="168" depart="168.00" from="-494970842#3" to="578021537#2"/>
    <trip id="169" depart="169.00" from="1265626003#1" to="-676484294"/>
    <trip id="170" depart="170.00" from="509865347#0" to="-496566848#2"/>
    <trip id="171" depart="171.00" from="-1050939120#0" to="-491093011#0"/>
    <trip id="172" depart="172.00" from="-733013648" to="699356176"/>
    <trip id="173" depart="173.00" from="913554025" to="-509865284#4"/>
    <trip id="174" depart="174.00" from="453439715#5" to="1008032474"/>
    <trip id="175" depart="175.00" from="972761882" to="28932347"/>
    <trip id="176" depart="176.00" from="762042490#1" to="-29845699#17"/>
    <trip id="177" depart="177.00" from="915923327" to="-485868998#0"/>
    <trip id="178" depart="178.00" from="850751855#2" to="-506608902#0"/>
    <trip id="179" depart="179.00" from="-29799391#4" to="1176239223"/>
    <trip id="180" depart="180.00" from="496041052#1" to="-732485117#0"/>
    <trip id="181" depart="181.00" from="31336238#7" to="28696808#3"/>
    <trip id="182" depart="182.00" from="-982431398#1" to="29849410#2"/>
    <trip id="183" depart="183.00" from="-499771957#1" to="494646885#0"/>
    <trip id="184" depart="184.00" from="-100360848#5" to="759678731#1"/>
    <trip id="185" depart="185.00" from="28779858#2" to="496041096"/>
    <trip id="186" depart="186.00" from="496643317#5" to="488357400#0"/>
    <trip id="187" depart="187.00" from="-884612075#0" to="-28218848#1"/>
    <trip id="188" depart="188.00" from="484863014#1" to="-754073646#3"/>
    <trip id="189" depart="189.00" from="-684293795" to="676254888"/>
    <trip id="190" depart="190.00" from="494970760#4" to="-654857223#6"/>
    <trip id="191" depart="191.00" from="-662611419#4" to="1032750365"/>
    <trip id="192" depart="192.00" from="100371478#1" to="-594785797#0"/>
    <trip id="193" depart="193.00" from="-29855357#1" to="1085236379#1"/>
    <trip id="194" depart="194.00" from="762101021#3" to="490875437#1"/>
    <trip id="195" depart="195.00" from="749995400" to="37018609#3"/>
    <trip id="196" depart="196.00" from="-593550816" to="28948417#8"/>
    <trip id="197" depart="197.00" from="-100016661#2" to="-556966717#0"/>
    <trip id="198" depart="198.00" from="1059733636" to="29853561#0"/>
    <trip id="199" depart="199.00" from="482375147#2" to="1376086628"/>
    <trip id="200" depart="200.00" from="1118023289" to="-494095902#5"/>
    <trip id="201" depart="201.00" from="1349179459#0" to="751464390#1"/>
    <trip id="202" depart="202.00" from="509965204" to="-484854179#2"/>
    <trip id="203" depart="203.00" from="-28875328#4" to="28715884"/>
    <trip id="204" depart="204.00" from="392059309#5" to="-758152187#1"/>
    <trip id="205" depart="205.00" from="559321255" to="499771948#4"/>
    <trip id="206" depart="206.00" from="485868994#1" to="-496040980#6"/>
    <trip id="207" depart="207.00" from="-492240847#0" to="-1052180285#0"/>
    <trip id="208" depart="208.00" from="-496829985" to="155115841#1"/>
    <trip id="209" depart="209.00" from="675928542" to="-28678724"/>
    <trip id="210" depart="210.00" from="100992866#3" to="453455941#1"/>
    <trip id="211" depart="211.00" from="-491093009" to="492962273#1"/>
    <trip id="212" depart="212.00" from="18056345#25" to="-497061610#1"/>
    <trip id="213" depart="213.00" from="483367718" to="-100383363#9"/>
    <trip id="214" depart="214.00" from="497061622#2" to="506608900"/>
    <trip id="215" depart="215.00" from="-29796139#0" to="1106708922"/>
    <trip id="216" depart="216.00" from="-485238532#0" to="837040168#0"/>
    <trip id="217" depart="217.00" from="28219233#3" to="-1381219081"/>
    <trip id="218" depart="218.00" from="-497061649#0" to="676290253"/>
    <trip id="219" depart="219.00" from="1252511146#1" to="554825388#1"/>
    <trip id="220" depart="220.00" from="485140894#7" to="987624158"/>
    <trip id="221" depart="221.00" from="29858771#7" to="774129902"/>
    <trip id="222" depart="222.00" from="736957428#6" to="369457122"/>
    <trip id="223" depart="223.00" from="494646866#3" to="28218954#3"/>
    <trip id="224" depart="224.00" from="594807794" to="28948417#6"/>
    <trip id="225" depart="225.00" from="745587124" to="497093783"/>
    <trip id="226" depart="226.00" from="1369713982" to="-500880972#1"/>
    <trip id="227" depart="227.00" from="-496838336#1" to="4705040#2"/>
    <trip id="228" depart="228.00" from="500836752" to="28773411#0"/>
    <trip id="229" depart="229.00" from="37018602#6" to="-508327335#1"/>
    <trip id="230" depart="230.00" from="-28760127#1" to="-556909135"/>
    <trip id="231" depart="231.00" from="-506609011#1" to="-736673099"/>
    <trip id="232" depart="232.00" from="28779886#1" to="-31447028#10"/>
    <trip id="233" depart="233.00" from="-496566950#0" to="492962085"/>
    <trip id="234" depart="234.00" from="492962255#1" to="-192750199#3"/>
    <trip id="235" depart="235.00" from="100388271#2" to="28934635#1"/>
    <trip id="236" depart="236.00" from="101677170#1" to="-492962240#1"/>
    <trip id="237" depart="237.00" from="1025422759#2" to="753176559"/>
    <trip id="238" depart="238.00" from="29849223#4" to="492962255#0"/>
    <trip id="239" depart="239.00" from="688073443#0" to="501559922#3"/>
    <trip id="240" depart="240.00" from="-969750486#0" to="-100384313#1"/>
    <trip id="241" depart="241.00" from="-761659557" to="500825927#0"/>
    <trip id="242" depart="242.00" from="676454245#1" to="80396164"/>
    <trip id="243" depart="243.00" from="1018733584" to="498494946"/>
    <trip id="244" depart="244.00" from="28875331#7" to="31560676#1"/>
    <trip id="245" depart="245.00" from="-494970763#1" to="-494970830#2"/>
    <trip id="246" depart="246.00" from="1098599578#1" to="-1085330835#1"/>
    <trip id="247" depart="247.00" from="-752083097" to="491495122#1"/>
    <trip id="248" depart="248.00" from="100383355#1" to="-484159995#1"/>
    <trip id="249" depart="249.00" from="1294695410#1" to="-29855396#1"/>
    <trip id="250" depart="250.00" from="35309646" to="-1065808745"/>
    <trip id="251" depart="251.00" from="-99851774#4" to="29814794#0"/>
    <trip id="252" depart="252.00" from="-1068166478" to="482375147#1"/>
    <trip id="253" depart="253.00" from="-31295333#0" to="1369109843"/>
    <trip id="254" depart="254.00" from="-1381219066" to="-99824299#2"/>
    <trip id="255" depart="255.00" from="-492989033" to="-751766071"/>
    <trip id="256" depart="256.00" from="499771984" to="-99824299#2"/>
    <trip id="257" depart="257.00" from="497061649#2" to="633262597#0"/>
    <trip id="258" depart="258.00" from="-498731058" to="-28779896#0"/>
    <trip id="259" depart="259.00" from="-1032744304" to="28934555#0"/>
    <trip id="260" depart="260.00" from="998948411" to="-813973246"/>
    <trip id="261" depart="261.00" from="474692374#1" to="508327290#1"/>
    <trip id="262" depart="262.00" from="481975577#0" to="500825942#1"/>
    <trip id="263" depart="263.00" from="766850322#1" to="-492464874"/>
    <trip id="264" depart="264.00" from="-1042518139#0" to="-392059305#4"/>
    <trip id="265" depart="265.00" from="-29853534#6" to="488357381#0"/>
    <trip id="266" depart="266.00" from="29068595#2" to="-494970760#1"/>
    <trip id="267" depart="267.00" from="492482603#1" to="502266138#0"/>
    <trip id="268" depart="268.00" from="-484569772#0" to="34333781#2"/>
    <trip id="269" depart="269.00" from="496830076#7" to="-29845660#9"/>
    <trip id="270" depart="270.00" from="560887466" to="913501176"/>
    <trip id="271" depart="271.00" from="-29799386#4" to="-1054974926"/>
    <trip id="272" depart="272.00" from="-676158678" to="490875437#2"/>
    <trip id="273" depart="273.00" from="824746571#0" to="100572743"/>
    <trip id="274" depart="274.00" from="494095900#0" to="-28760112#1"/>
    <trip id="275" depart="275.00" from="491482819#1" to="450711235#1"/>
    <trip id="276" depart="276.00" from="-29783999#1" to="506903872"/>
    <trip id="277" depart="277.00" from="675950802" to="31451207#3"/>
    <trip id="278" depart="278.00" from="-29849326#0" to="980763511"/>
    <trip id="279" depart="279.00" from="507502828#2" to="-765592325"/>
    <trip id="280" depart="280.00" from="1054707128" to="-976307652"/>
    <trip id="281" depart="281.00" from="192755826#4" to="-761425335"/>
    <trip id="282" depart="282.00" from="675100582" to="594491448#1"/>
    <trip id="283" depart="283.00" from="-29788247#3" to="870478199"/>
    <trip id="284" depart="284.00" from="428431669" to="595303201"/>
    <trip id="285" depart="285.00" from="492962276#1" to="1190146828"/>
    <trip id="286" depart="286.00" from="496567038#1" to="913757853"/>
    <trip id="287" depart="287.00" from="-506608894#1" to="557278259"/>
    <trip id="288" depart="288.00" from="28779852#0" to="18070225#2"/>
    <trip id="289" depart="289.00" from="1096821892#2" to="496626623#0"/>
    <trip id="290" depart="290.00" from="-506608865#5" to="686637933#0"/>
    <trip id="291" depart="291.00" from="594807798#0" to="-28932375#0"/>
    <trip id="292" depart="292.00" from="732483166" to="-497061607"/>
    <trip id="293" depart="293.00" from="1289621535" to="35309652#0"/>
    <trip id="294" depart="294.00" from="-950387884" to="-1084945219#0"/>
    <trip id="295" depart="295.00" from="676023007#2" to="-485997876#13"/>
    <trip id="296" depart="296.00" from="-492989047#1" to="533118203#3"/>
    <trip id="297" depart="297.00" from="-754288078" to="732752796"/>
    <trip id="298" depart="298.00" from="492915228#2" to="-508874617#0"/>
    <trip id="299" depart="299.00" from="-100572746#3" to="768031120"/>
    <trip id="300" depart="300.00" from="-28875336#0" to="496078555"/>
    <trip id="301" depart="301.00" from="155145163#11" to="500845441"/>
    <trip id="302" depart="302.00" from="491482819#1" to="484156758#4"/>
    <trip id="303" depart="303.00" from="155174525#1" to="514930334"/>
    <trip id="304" depart="304.00" from="-28940711#6" to="-495401470#0"/>
    <trip id="305" depart="305.00" from="491503225" to="-692258546#1"/>
    <trip id="306" depart="306.00" from="29845694#6" to="155111146#7"/>
    <trip id="307" depart="307.00" from="28760121#4" to="1107211034#1"/>
    <trip id="308" depart="308.00" from="496829975#5" to="-754288078"/>
    <trip id="309" depart="309.00" from="492945084" to="-507502914#4"/>
    <trip id="310" depart="310.00" from="-498593793" to="-29849338#1"/>
    <trip id="311" depart="311.00" from="-490847950#1" to="-29849302#3"/>
    <trip id="312" depart="312.00" from="28773423#1" to="500881011#4"/>
    <trip id="313" depart="313.00" from="-487395315#3" to="-494646796#0"/>
    <trip id="314" depart="314.00" from="155104975#1" to="496584779#0"/>
    <trip id="315" depart="315.00" from="948123529#2" to="28773434#0"/>
    <trip id="316" depart="316.00" from="-508874643" to="-29783983#4"/>
    <trip id="317" depart="317.00" from="-491092999#0" to="-496566844#1"/>
    <trip id="318" depart="318.00" from="-485868994#0" to="-100995632#0"/>
    <trip id="319" depart="319.00" from="28773415#0" to="-508327318#2"/>
    <trip id="320" depart="320.00" from="937014290" to="29713020#0"/>
    <trip id="321" depart="321.00" from="492464891#1" to="-29855336#2"/>
    <trip id="322" depart="322.00" from="698802035#4" to="192692986#9"/>
    <trip id="323" depart="323.00" from="700775244" to="29849302#6"/>
    <trip id="324" depart="324.00" from="1299095341" to="1227928226"/>
    <trip id="325" depart="325.00" from="-487370335#3" to="-1412104766"/>
    <trip id="326" depart="326.00" from="762115000" to="155174481"/>
    <trip id="327" depart="327.00" from="578762106#1" to="100992854#0"/>
    <trip id="328" depart="328.00" from="-28679464#1" to="453455935#1"/>
    <trip id="329" depart="329.00" from="-155104972" to="-369457134#3"/>
    <trip id="330" depart="330.00" from="28969849#4" to="-676197057"/>
    <trip id="331" depart="331.00" from="99824304#0" to="-29849282#16"/>
    <trip id="332" depart="332.00" from="500826064" to="34326846#4"/>
    <trip id="333" depart="333.00" from="508874573#0" to="-496041076#1"/>
    <trip id="334" depart="334.00" from="28680290" to="1284899631#3"/>
    <trip id="335" depart="335.00" from="1121133195#2" to="693283198"/>
    <trip id="336" depart="336.00" from="99499778#4" to="-679177825"/>
    <trip id="337" depart="337.00" from="343646328" to="343919256#1"/>
    <trip id="338" depart="338.00" from="496626535#1" to="767770650#6"/>
    <trip id="339" depart="339.00" from="-492962082#1" to="-493594319#1"/>
    <trip id="340" depart="340.00" from="484645400#1" to="-45759131#5"/>
    <trip id="341" depart="341.00" from="-485065023#2" to="-28715949#0"/>
    <trip id="342" depart="342.00" from="-100371477#8" to="1284899631#2"/>
    <trip id="343" depart="343.00" from="29855377#2" to="-557542324"/>
    <trip id="344" depart="344.00" from="-496566962" to="494646734#0"/>
    <trip id="345" depart="345.00" from="492945089" to="1294680453#2"/>
    <trip id="346" depart="346.00" from="489779099#1" to="758987627"/>
    <trip id="347" depart="347.00" from="508327247" to="449551300"/>
    <trip id="348" depart="348.00" from="484657297#3" to="761763510#1"/>
    <trip id="349" depart="349.00" from="1049856816" to="28940738#4"/>
    <trip id="350" depart="350.00" from="461101926#5" to="754106908#1"/>
    <trip id="351" depart="351.00" from="594397277#2" to="-284762181#2"/>
    <trip id="352" depart="352.00" from="-484159994#0" to="-700340091#1"/>
    <trip id="353" depart="353.00" from="496838338#20" to="29845694#2"/>
    <trip id="354" depart="354.00" from="-514923762#2" to="-29853151#4"/>
    <trip id="355" depart="355.00" from="490860286#1" to="492989044#0"/>
    <trip id="356" depart="356.00" from="762371845" to="28193716#1"/>
    <trip id="357" depart="357.00" from="18056190#2" to="-28779867#0"/>
    <trip id="358" depart="358.00" from="-1251048151" to="1156851351#0"/>
    <trip id="359" depart="359.00" from="-732473003#1" to="-499771952"/>
    <trip id="360" depart="360.00" from="-28934618#3" to="880881326#3"/>
    <trip id="361" depart="361.00" from="631760994#3" to="29849342#0"/>
    <trip id="362" depart="362.00" from="768027248#2" to="998671062"/>
    <trip id="363" depart="363.00" from="485868983" to="-507502827#5"/>
    <trip id="364" depart="364.00" from="-1279091702" to="500836743"/>
    <trip id="365" depart="365.00" from="1305310954" to="484854182"/>
    <trip id="366" depart="366.00" from="755009284#0" to="-485992576#1"/>
    <trip id="367" depart="367.00" from="29849282#5" to="458897492#1"/>
    <trip id="368" depart="368.00" from="166090944#2" to="-28934632#8"/>
    <trip id="369" depart="369.00" from="-759006515" to="-756455475#2"/>
    <trip id="370" depart="370.00" from="485246606#0" to="690361041#2"/>
    <trip id="371" depart="371.00" from="-736950407#5" to="492962079#3"/>
    <trip id="372" depart="372.00" from="-514923682#0" to="765626990"/>
    <trip id="373" depart="373.00" from="557233218#2" to="28968873#0"/>
    <trip id="374" depart="374.00" from="1245274151#1" to="-732686120#1"/>
    <trip id="375" depart="375.00" from="-732686113" to="917659023#2"/>
    <trip id="376" depart="376.00" from="100381125#1" to="28706110#1"/>
    <trip id="377" depart="377.00" from="989809714" to="485243030#2"/>
    <trip id="378" depart="378.00" from="28779910#7" to="1050972417"/>
    <trip id="379" depart="379.00" from="-488357397#1" to="-936158390"/>
    <trip id="380" depart="380.00" from="498447353" to="449551309#7"/>
    <trip id="381" depart="381.00" from="499771948#1" to="-492945076#0"/>
    <trip id="382" depart="382.00" from="28932371#0" to="760535346#1"/>
    <trip id="383" depart="383.00" from="1107008878" to="492988997#11"/>
    <trip id="384" depart="384.00" from="-29849330#5" to="938327140"/>
    <trip id="385" depart="385.00" from="31447084#6" to="-496829901#1"/>
    <trip id="386" depart="386.00" from="-458235919#5" to="28971731#0"/>
    <trip id="387" depart="387.00" from="28934562#1" to="-28940730#4"/>
    <trip id="388" depart="388.00" from="99824278#0" to="755079400#1"/>
    <trip id="389" depart="389.00" from="1281346437#1" to="-29849223#4"/>
    <trip id="390" depart="390.00" from="594852448#1" to="28138314#1"/>
    <trip id="391" depart="391.00" from="494571527#0" to="28678751#1"/>
    <trip id="392" depart="392.00" from="-507502723" to="639939845#4"/>
    <trip id="393" depart="393.00" from="969757187#0" to="-497061604"/>
    <trip id="394" depart="394.00" from="28934536#0" to="-99858402#1"/>
    <trip id="395" depart="395.00" from="757268262" to="28678441#0"/>
    <trip id="396" depart="396.00" from="724007433#1" to="699354247#1"/>
    <trip id="397" depart="397.00" from="-507502867#1" to="510182647"/>
    <trip id="398" depart="398.00" from="1016048182#1" to="761818585"/>
    <trip id="399" depart="399.00" from="210243161#4" to="594381768"/>
    <trip id="400" depart="400.00" from="-508874626#1" to="-594889808#0"/>
    <trip id="401" depart="401.00" from="29849330#0" to="99859142#1"/>
    <trip id="402" depart="402.00" from="155174454#1" to="-369457126"/>
    <trip id="403" depart="403.00" from="28779861#2" to="-763106847"/>
    <trip id="404" depart="404.00" from="28934559#1" to="28940713#4"/>
    <trip id="405" depart="405.00" from="1249818273#1" to="-737759075#0"/>
    <trip id="406" depart="406.00" from="-488406259#0" to="492988946#17"/>
    <trip id="407" depart="407.00" from="29796148#1" to="-496601788#0"/>
    <trip id="408" depart="408.00" from="502266141#15" to="-1295806766#0"/>
    <trip id="409" depart="409.00" from="496829913#2" to="494569106"/>
    <trip id="410" depart="410.00" from="556966718" to="1001360550#1"/>